/*--------------------------------*- C++ -*----------------------------------*\
| =========                 |                                                 |
| \\      /  F ield         | OpenFOAM: The Open Source CFD Toolbox           |
|  \\    /   O peration     | Version:  v2206                                 |
|   \\  /    A nd           | Website:  www.openfoam.com                      |
|    \\/     M anipulation  |                                                 |
\*---------------------------------------------------------------------------*/
FoamFile
{
    version     2.0;
    format      ascii;
    class       volVectorField;
    object      U;
}
// * * * * * * * * * * * * * * * * * * * * * * * * * * * * * * * * * * * * * //
dimensions      [0 1 -1 0 0 0 0];

internalField   uniform (1.0 0 0);

boundaryField
{


    inlet
    {
      type            fixedValue;
      value           $internalField;
    }

    outlet
    {
        type            zeroGradient;
    }

    sidewall1
    {
      type            inletOutlet;
      inletValue  uniform (1.0 0 0);
      value           $internalField;
    }

    sidewall2
    {
      type            inletOutlet;
      inletValue  uniform (1.0 0 0);
      value           $internalField;
    }

    upperwall
    {
      type            inletOutlet;
      inletValue  uniform (1.0 0 0);
      value           $internalField;
    }

    lowerwall
    {
      type            inletOutlet;
      inletValue  uniform (1.0 0 0);
      value           $internalField;
    }

    cylinder
    {
      type            noSlip;
    }

}


// ************************************************************************* //
