/*--------------------------------*- C++ -*----------------------------------*\
| =========                 |                                                 |
| \\      /  F ield         | OpenFOAM: The Open Source CFD Toolbox           |
|  \\    /   O peration     | Version:  2206                                  |
|   \\  /    A nd           | Website:  www.openfoam.com                      |
|    \\/     M anipulation  |                                                 |
\*---------------------------------------------------------------------------*/
FoamFile
{
    version     2.0;
    format      ascii;
    arch        "LSB;label=32;scalar=64";
    class       featureEdgeMesh;
    location    "constant/triSurface";
    object      cylinder.eMesh;
}
// * * * * * * * * * * * * * * * * * * * * * * * * * * * * * * * * * * * * * //


// points:

112
(
(0.00499185 0.000285444 0.005)
(0.005 6.12323e-19 0.005)
(0.00499185 -0.000285444 -0.005)
(0.005 1.83697e-18 -0.005)
(0.00499185 -0.000285444 0.005)
(0.00492677 -0.000852611 0.005)
(0.00492677 -0.000852611 -0.005)
(0.00479747 -0.00140866 0.005)
(0.00479747 -0.00140866 -0.005)
(0.00460562 -0.00194635 0.005)
(0.00460562 -0.00194635 -0.005)
(0.00435373 -0.00245867 0.005)
(0.00435373 -0.00245867 -0.005)
(0.00404509 -0.00293893 0.005)
(0.00404509 -0.00293893 -0.005)
(0.00368371 -0.00338087 0.005)
(0.00368371 -0.00338087 -0.005)
(0.0032743 -0.00377875 0.005)
(0.0032743 -0.00377875 -0.005)
(0.00282222 -0.00412736 0.005)
(0.00282222 -0.00412736 -0.005)
(0.00233334 -0.00442216 0.005)
(0.00233334 -0.00442216 -0.005)
(0.00181404 -0.00465932 0.005)
(0.00181404 -0.00465932 -0.005)
(0.00127109 -0.00483573 0.005)
(0.00127109 -0.00483573 -0.005)
(0.000711574 -0.00494911 0.005)
(0.000711574 -0.00494911 -0.005)
(0.00014278 -0.00499796 0.005)
(0.00014278 -0.00499796 -0.005)
(-0.000427875 -0.00498166 0.005)
(-0.000427875 -0.00498166 -0.005)
(-0.000992952 -0.00490041 0.005)
(-0.000992952 -0.00490041 -0.005)
(-0.00154508 -0.00475528 0.005)
(-0.00154508 -0.00475528 -0.005)
(-0.00207707 -0.00454816 0.005)
(-0.00207707 -0.00454816 -0.005)
(-0.00258199 -0.00428174 0.005)
(-0.00258199 -0.00428174 -0.005)
(-0.00305324 -0.00395951 0.005)
(-0.00305324 -0.00395951 -0.005)
(-0.00348469 -0.00358566 0.005)
(-0.00348469 -0.00358566 -0.005)
(-0.00387071 -0.00316506 0.005)
(-0.00387071 -0.00316506 -0.005)
(-0.00420627 -0.0027032 0.005)
(-0.00420627 -0.0027032 -0.005)
(-0.00448699 -0.00220611 0.005)
(-0.00448699 -0.00220611 -0.005)
(-0.00470922 -0.00168025 0.005)
(-0.00470922 -0.00168025 -0.005)
(-0.00487006 -0.00113248 0.005)
(-0.00487006 -0.00113248 -0.005)
(-0.00496741 -0.000569957 0.005)
(-0.00496741 -0.000569957 -0.005)
(-0.005 0 0.005)
(-0.005 0 -0.005)
(-0.00496741 0.000569957 0.005)
(-0.00496741 0.000569957 -0.005)
(-0.00487006 0.00113248 0.005)
(-0.00487006 0.00113248 -0.005)
(-0.00470922 0.00168025 0.005)
(-0.00470922 0.00168025 -0.005)
(-0.00448699 0.00220611 0.005)
(-0.00448699 0.00220611 -0.005)
(-0.00420627 0.0027032 0.005)
(-0.00420627 0.0027032 -0.005)
(-0.00387071 0.00316506 0.005)
(-0.00387071 0.00316506 -0.005)
(-0.00348469 0.00358566 0.005)
(-0.00348469 0.00358566 -0.005)
(-0.00305324 0.00395951 0.005)
(-0.00305324 0.00395951 -0.005)
(-0.00258199 0.00428174 0.005)
(-0.00258199 0.00428174 -0.005)
(-0.00207707 0.00454816 0.005)
(-0.00207707 0.00454816 -0.005)
(-0.00154508 0.00475528 0.005)
(-0.00154508 0.00475528 -0.005)
(-0.000992952 0.00490041 0.005)
(-0.000992952 0.00490041 -0.005)
(-0.000427875 0.00498166 0.005)
(-0.000427875 0.00498166 -0.005)
(0.00014278 0.00499796 0.005)
(0.00014278 0.00499796 -0.005)
(0.000711574 0.00494911 0.005)
(0.000711574 0.00494911 -0.005)
(0.00127109 0.00483573 0.005)
(0.00127109 0.00483573 -0.005)
(0.00181404 0.00465932 0.005)
(0.00181404 0.00465932 -0.005)
(0.00233334 0.00442216 0.005)
(0.00233334 0.00442216 -0.005)
(0.00282222 0.00412736 0.005)
(0.00282222 0.00412736 -0.005)
(0.0032743 0.00377875 0.005)
(0.0032743 0.00377875 -0.005)
(0.00368371 0.00338087 0.005)
(0.00368371 0.00338087 -0.005)
(0.00404509 0.00293893 0.005)
(0.00404509 0.00293893 -0.005)
(0.00435373 0.00245867 0.005)
(0.00435373 0.00245867 -0.005)
(0.00460562 0.00194635 0.005)
(0.00460562 0.00194635 -0.005)
(0.00479747 0.00140866 0.005)
(0.00479747 0.00140866 -0.005)
(0.00492677 0.000852611 0.005)
(0.00492677 0.000852611 -0.005)
(0.00499185 0.000285444 -0.005)
)


// edges:

112
(
(0 1)
(2 3)
(1 4)
(4 5)
(6 2)
(5 7)
(8 6)
(7 9)
(10 8)
(9 11)
(12 10)
(11 13)
(14 12)
(13 15)
(16 14)
(15 17)
(18 16)
(17 19)
(20 18)
(19 21)
(22 20)
(21 23)
(24 22)
(23 25)
(26 24)
(25 27)
(28 26)
(27 29)
(30 28)
(29 31)
(32 30)
(31 33)
(34 32)
(33 35)
(36 34)
(35 37)
(38 36)
(37 39)
(40 38)
(39 41)
(42 40)
(41 43)
(44 42)
(43 45)
(46 44)
(45 47)
(48 46)
(47 49)
(50 48)
(49 51)
(52 50)
(51 53)
(54 52)
(53 55)
(56 54)
(55 57)
(58 56)
(57 59)
(60 58)
(59 61)
(62 60)
(61 63)
(64 62)
(63 65)
(66 64)
(65 67)
(68 66)
(67 69)
(70 68)
(69 71)
(72 70)
(71 73)
(74 72)
(73 75)
(76 74)
(75 77)
(78 76)
(77 79)
(80 78)
(79 81)
(82 80)
(81 83)
(84 82)
(83 85)
(86 84)
(85 87)
(88 86)
(87 89)
(90 88)
(89 91)
(92 90)
(91 93)
(94 92)
(93 95)
(96 94)
(95 97)
(98 96)
(97 99)
(100 98)
(99 101)
(102 100)
(101 103)
(104 102)
(103 105)
(106 104)
(105 107)
(108 106)
(107 109)
(110 108)
(109 0)
(111 110)
(3 111)
)

// * * * * * * * * * * * * * * * * * * * * * * * * * * * * * * * * * * * * * //


// ************************************************************************* //
