/*--------------------------------*- C++ -*----------------------------------*\
| =========                 |                                                 |
| \\      /  F ield         | OpenFOAM: The Open Source CFD Toolbox           |
|  \\    /   O peration     | Version:  2206                                  |
|   \\  /    A nd           | Website:  www.openfoam.com                      |
|    \\/     M anipulation  |                                                 |
\*---------------------------------------------------------------------------*/
FoamFile
{
    version     2.0;
    format      ascii;
    arch        "LSB;label=32;scalar=64";
    class       extendedFeatureEdgeMesh;
    location    "constant/extendedFeatureEdgeMesh";
    object      cylinder.extendedFeatureEdgeMesh;
}
// * * * * * * * * * * * * * * * * * * * * * * * * * * * * * * * * * * * * * //

// points

112
(
(0.00499185 0.000285444 0.005)
(0.005 6.12323e-19 0.005)
(0.00499185 -0.000285444 -0.005)
(0.005 1.83697e-18 -0.005)
(0.00499185 -0.000285444 0.005)
(0.00492677 -0.000852611 0.005)
(0.00492677 -0.000852611 -0.005)
(0.00479747 -0.00140866 0.005)
(0.00479747 -0.00140866 -0.005)
(0.00460562 -0.00194635 0.005)
(0.00460562 -0.00194635 -0.005)
(0.00435373 -0.00245867 0.005)
(0.00435373 -0.00245867 -0.005)
(0.00404509 -0.00293893 0.005)
(0.00404509 -0.00293893 -0.005)
(0.00368371 -0.00338087 0.005)
(0.00368371 -0.00338087 -0.005)
(0.0032743 -0.00377875 0.005)
(0.0032743 -0.00377875 -0.005)
(0.00282222 -0.00412736 0.005)
(0.00282222 -0.00412736 -0.005)
(0.00233334 -0.00442216 0.005)
(0.00233334 -0.00442216 -0.005)
(0.00181404 -0.00465932 0.005)
(0.00181404 -0.00465932 -0.005)
(0.00127109 -0.00483573 0.005)
(0.00127109 -0.00483573 -0.005)
(0.000711574 -0.00494911 0.005)
(0.000711574 -0.00494911 -0.005)
(0.00014278 -0.00499796 0.005)
(0.00014278 -0.00499796 -0.005)
(-0.000427875 -0.00498166 0.005)
(-0.000427875 -0.00498166 -0.005)
(-0.000992952 -0.00490041 0.005)
(-0.000992952 -0.00490041 -0.005)
(-0.00154508 -0.00475528 0.005)
(-0.00154508 -0.00475528 -0.005)
(-0.00207707 -0.00454816 0.005)
(-0.00207707 -0.00454816 -0.005)
(-0.00258199 -0.00428174 0.005)
(-0.00258199 -0.00428174 -0.005)
(-0.00305324 -0.00395951 0.005)
(-0.00305324 -0.00395951 -0.005)
(-0.00348469 -0.00358566 0.005)
(-0.00348469 -0.00358566 -0.005)
(-0.00387071 -0.00316506 0.005)
(-0.00387071 -0.00316506 -0.005)
(-0.00420627 -0.0027032 0.005)
(-0.00420627 -0.0027032 -0.005)
(-0.00448699 -0.00220611 0.005)
(-0.00448699 -0.00220611 -0.005)
(-0.00470922 -0.00168025 0.005)
(-0.00470922 -0.00168025 -0.005)
(-0.00487006 -0.00113248 0.005)
(-0.00487006 -0.00113248 -0.005)
(-0.00496741 -0.000569957 0.005)
(-0.00496741 -0.000569957 -0.005)
(-0.005 0 0.005)
(-0.005 0 -0.005)
(-0.00496741 0.000569957 0.005)
(-0.00496741 0.000569957 -0.005)
(-0.00487006 0.00113248 0.005)
(-0.00487006 0.00113248 -0.005)
(-0.00470922 0.00168025 0.005)
(-0.00470922 0.00168025 -0.005)
(-0.00448699 0.00220611 0.005)
(-0.00448699 0.00220611 -0.005)
(-0.00420627 0.0027032 0.005)
(-0.00420627 0.0027032 -0.005)
(-0.00387071 0.00316506 0.005)
(-0.00387071 0.00316506 -0.005)
(-0.00348469 0.00358566 0.005)
(-0.00348469 0.00358566 -0.005)
(-0.00305324 0.00395951 0.005)
(-0.00305324 0.00395951 -0.005)
(-0.00258199 0.00428174 0.005)
(-0.00258199 0.00428174 -0.005)
(-0.00207707 0.00454816 0.005)
(-0.00207707 0.00454816 -0.005)
(-0.00154508 0.00475528 0.005)
(-0.00154508 0.00475528 -0.005)
(-0.000992952 0.00490041 0.005)
(-0.000992952 0.00490041 -0.005)
(-0.000427875 0.00498166 0.005)
(-0.000427875 0.00498166 -0.005)
(0.00014278 0.00499796 0.005)
(0.00014278 0.00499796 -0.005)
(0.000711574 0.00494911 0.005)
(0.000711574 0.00494911 -0.005)
(0.00127109 0.00483573 0.005)
(0.00127109 0.00483573 -0.005)
(0.00181404 0.00465932 0.005)
(0.00181404 0.00465932 -0.005)
(0.00233334 0.00442216 0.005)
(0.00233334 0.00442216 -0.005)
(0.00282222 0.00412736 0.005)
(0.00282222 0.00412736 -0.005)
(0.0032743 0.00377875 0.005)
(0.0032743 0.00377875 -0.005)
(0.00368371 0.00338087 0.005)
(0.00368371 0.00338087 -0.005)
(0.00404509 0.00293893 0.005)
(0.00404509 0.00293893 -0.005)
(0.00435373 0.00245867 0.005)
(0.00435373 0.00245867 -0.005)
(0.00460562 0.00194635 0.005)
(0.00460562 0.00194635 -0.005)
(0.00479747 0.00140866 0.005)
(0.00479747 0.00140866 -0.005)
(0.00492677 0.000852611 0.005)
(0.00492677 0.000852611 -0.005)
(0.00499185 0.000285444 -0.005)
)

// edges

112
(
(0 1)
(2 3)
(1 4)
(4 5)
(6 2)
(5 7)
(8 6)
(7 9)
(10 8)
(9 11)
(12 10)
(11 13)
(14 12)
(13 15)
(16 14)
(15 17)
(18 16)
(17 19)
(20 18)
(19 21)
(22 20)
(21 23)
(24 22)
(23 25)
(26 24)
(25 27)
(28 26)
(27 29)
(30 28)
(29 31)
(32 30)
(31 33)
(34 32)
(33 35)
(36 34)
(35 37)
(38 36)
(37 39)
(40 38)
(39 41)
(42 40)
(41 43)
(44 42)
(43 45)
(46 44)
(45 47)
(48 46)
(47 49)
(50 48)
(49 51)
(52 50)
(51 53)
(54 52)
(53 55)
(56 54)
(55 57)
(58 56)
(57 59)
(60 58)
(59 61)
(62 60)
(61 63)
(64 62)
(63 65)
(66 64)
(65 67)
(68 66)
(67 69)
(70 68)
(69 71)
(72 70)
(71 73)
(74 72)
(73 75)
(76 74)
(75 77)
(78 76)
(77 79)
(80 78)
(79 81)
(82 80)
(81 83)
(84 82)
(83 85)
(86 84)
(85 87)
(88 86)
(87 89)
(90 88)
(89 91)
(92 90)
(91 93)
(94 92)
(93 95)
(96 94)
(95 97)
(98 96)
(97 99)
(100 98)
(99 101)
(102 100)
(101 103)
(104 102)
(103 105)
(106 104)
(105 107)
(108 106)
(107 109)
(110 108)
(109 0)
(111 110)
(3 111)
)

// concaveStart mixedStart nonFeatureStart
0 0 0
// internalStart flatStart openStart multipleStart
112 112 112 112
// normals

224
(
(0.999592 0.0285534 3.47603e-18)
(0 0 1)
(0.999592 -0.0285534 -3.49678e-18)
(0 0 -1)
(0.999592 -0.0285534 0)
(0 0 1)
(0.993482 -0.113993 0)
(0 0 1)
(0.993482 -0.113993 0)
(-0 0 -1)
(0.974012 -0.226496 0)
(0 0 1)
(0.974012 -0.226496 0)
(0 0 -1)
(0.941844 -0.33605 0)
(0 -0 1)
(0.941844 -0.33605 0)
(0 0 -1)
(0.897398 -0.441221 0)
(0 0 1)
(0.897398 -0.441221 0)
(-0 0 -1)
(0.841254 -0.540641 0)
(0 0 1)
(0.841254 -0.540641 0)
(0 0 -1)
(0.774142 -0.633012 0)
(0 -0 1)
(0.774142 -0.633012 0)
(0 0 -1)
(0.696938 -0.717131 0)
(0 0 1)
(0.696938 -0.717131 0)
(-0 0 -1)
(0.610647 -0.791903 0)
(0 0 1)
(0.610647 -0.791903 0)
(0 0 -1)
(0.516399 -0.856348 0)
(0 -0 1)
(0.516399 -0.856348 0)
(0 0 -1)
(0.415414 -0.909632 0)
(0 0 1)
(0.415414 -0.909632 0)
(-0 0 -1)
(0.309017 -0.951056 0)
(0 0 1)
(0.309017 -0.951056 0)
(0 0 -1)
(0.19859 -0.980083 0)
(0 -0 1)
(0.19859 -0.980083 0)
(0 0 -1)
(0.0855761 -0.996332 0)
(0 0 1)
(0.0855761 -0.996332 0)
(-0 0 -1)
(-0.0285561 -0.999592 0)
(0 0 1)
(-0.0285561 -0.999592 0)
(0 -0 -1)
(-0.142315 -0.989821 0)
(-0 0 1)
(-0.142315 -0.989821 0)
(0 0 -1)
(-0.254219 -0.967147 0)
(0 0 1)
(-0.254219 -0.967147 0)
(0 0 -1)
(-0.362808 -0.931864 0)
(0 0 1)
(-0.362808 -0.931864 0)
(0 0 -1)
(-0.466668 -0.884433 0)
(-0 0 1)
(-0.466668 -0.884433 0)
(0 0 -1)
(-0.564443 -0.825472 0)
(0 0 1)
(-0.564443 -0.825472 0)
(0 0 -1)
(-0.65486 -0.75575 0)
(0 0 1)
(-0.65486 -0.75575 0)
(0 0 -1)
(-0.736742 -0.676174 0)
(-0 0 1)
(-0.736742 -0.676174 0)
(0 0 -1)
(-0.809016 -0.587786 0)
(0 0 1)
(-0.809016 -0.587786 0)
(0 0 -1)
(-0.870746 -0.491733 0)
(0 0 1)
(-0.870746 -0.491733 0)
(0 0 -1)
(-0.921124 -0.38927 0)
(-0 0 1)
(-0.921124 -0.38927 0)
(0 0 -1)
(-0.959493 -0.281731 0)
(0 0 1)
(-0.959493 -0.281731 0)
(0 0 -1)
(-0.985354 -0.170524 0)
(0 0 1)
(-0.985354 -0.170524 0)
(0 0 -1)
(-0.998369 -0.0570877 0)
(-0 0 1)
(-0.998369 -0.0570877 0)
(-0 0 -1)
(-0.998369 0.0570877 0)
(0 0 1)
(-0.998369 0.0570877 0)
(0 0 -1)
(-0.985354 0.170524 0)
(0 0 1)
(-0.985354 0.170524 0)
(0 0 -1)
(-0.959493 0.281731 0)
(0 0 1)
(-0.959493 0.281731 0)
(0 0 -1)
(-0.921124 0.38927 0)
(0 0 1)
(-0.921124 0.38927 0)
(0 0 -1)
(-0.870746 0.491733 0)
(0 0 1)
(-0.870746 0.491733 0)
(0 0 -1)
(-0.809016 0.587786 0)
(0 0 1)
(-0.809016 0.587786 0)
(0 0 -1)
(-0.736742 0.676174 0)
(0 0 1)
(-0.736742 0.676174 0)
(0 0 -1)
(-0.65486 0.75575 0)
(0 0 1)
(-0.65486 0.75575 0)
(0 0 -1)
(-0.564443 0.825472 0)
(0 0 1)
(-0.564443 0.825472 0)
(0 0 -1)
(-0.466668 0.884433 0)
(0 0 1)
(-0.466668 0.884433 0)
(0 0 -1)
(-0.362808 0.931864 0)
(0 0 1)
(-0.362808 0.931864 0)
(0 0 -1)
(-0.254219 0.967147 0)
(0 0 1)
(-0.254219 0.967147 0)
(0 0 -1)
(-0.142315 0.989821 0)
(0 0 1)
(-0.142315 0.989821 0)
(0 0 -1)
(-0.0285561 0.999592 0)
(0 -0 1)
(-0.0285561 0.999592 0)
(0 0 -1)
(0.0855761 0.996332 -0)
(0 0 1)
(0.0855761 0.996332 0)
(0 0 -1)
(0.19859 0.980083 -0)
(0 0 1)
(0.19859 0.980083 0)
(0 -0 -1)
(0.309017 0.951056 -0)
(0 0 1)
(0.309017 0.951056 0)
(0 0 -1)
(0.415414 0.909632 -0)
(0 0 1)
(0.415414 0.909632 0)
(0 0 -1)
(0.516399 0.856348 -0)
(0 0 1)
(0.516399 0.856348 0)
(0 -0 -1)
(0.610647 0.791903 -0)
(0 0 1)
(0.610647 0.791903 0)
(0 0 -1)
(0.696938 0.717131 -0)
(0 0 1)
(0.696938 0.717131 0)
(0 0 -1)
(0.774142 0.633012 -0)
(0 0 1)
(0.774142 0.633012 0)
(0 -0 -1)
(0.841254 0.540641 -0)
(0 0 1)
(0.841254 0.540641 0)
(0 0 -1)
(0.897398 0.441221 -0)
(0 0 1)
(0.897398 0.441221 0)
(0 0 -1)
(0.941844 0.33605 -0)
(0 0 1)
(0.941844 0.33605 0)
(0 -0 -1)
(0.974012 0.226496 -0)
(0 0 1)
(0.974012 0.226496 0)
(0 0 -1)
(0.993482 0.113993 -0)
(0 0 1)
(0.993482 0.113993 0)
(0 0 -1)
(0.999592 0.0285534 -0)
(-0 0 -1)
)

// normal volume types

224
(
0
0
0
0
0
0
0
0
0
0
0
0
0
0
0
0
0
0
0
0
0
0
0
0
0
0
0
0
0
0
0
0
0
0
0
0
0
0
0
0
0
0
0
0
0
0
0
0
0
0
0
0
0
0
0
0
0
0
0
0
0
0
0
0
0
0
0
0
0
0
0
0
0
0
0
0
0
0
0
0
0
0
0
0
0
0
0
0
0
0
0
0
0
0
0
0
0
0
0
0
0
0
0
0
0
0
0
0
0
0
0
0
0
0
0
0
0
0
0
0
0
0
0
0
0
0
0
0
0
0
0
0
0
0
0
0
0
0
0
0
0
0
0
0
0
0
0
0
0
0
0
0
0
0
0
0
0
0
0
0
0
0
0
0
0
0
0
0
0
0
0
0
0
0
0
0
0
0
0
0
0
0
0
0
0
0
0
0
0
0
0
0
0
0
0
0
0
0
0
0
0
0
0
0
0
0
0
0
0
0
0
0
0
0
0
0
0
0
0
0
0
0
0
0
)

// normalDirections

112
(
2(1 -1)
2(1 -1)
2(1 -1)
2(1 -1)
2(1 -1)
2(1 -1)
2(1 -1)
2(1 -1)
2(1 -1)
2(1 -1)
2(1 -1)
2(1 -1)
2(1 -1)
2(1 -1)
2(1 -1)
2(1 -1)
2(1 -1)
2(1 -1)
2(1 -1)
2(1 -1)
2(1 -1)
2(1 -1)
2(1 -1)
2(1 -1)
2(1 -1)
2(1 -1)
2(1 -1)
2(1 -1)
2(1 -1)
2(1 -1)
2(1 -1)
2(1 -1)
2(1 -1)
2(1 -1)
2(1 -1)
2(1 -1)
2(1 -1)
2(1 -1)
2(1 -1)
2(1 -1)
2(1 -1)
2(1 -1)
2(1 -1)
2(1 -1)
2(1 -1)
2(1 -1)
2(1 -1)
2(1 -1)
2(1 -1)
2(1 -1)
2(1 -1)
2(1 -1)
2(1 -1)
2(1 -1)
2(1 -1)
2(1 -1)
2(1 -1)
2(1 -1)
2(1 -1)
2(1 -1)
2(1 -1)
2(1 -1)
2(1 -1)
2(1 -1)
2(1 -1)
2(1 -1)
2(1 -1)
2(1 -1)
2(1 -1)
2(1 -1)
2(1 -1)
2(1 -1)
2(1 -1)
2(1 -1)
2(1 -1)
2(1 -1)
2(1 -1)
2(1 -1)
2(1 -1)
2(1 -1)
2(1 -1)
2(1 -1)
2(1 -1)
2(1 -1)
2(1 -1)
2(1 -1)
2(1 -1)
2(1 -1)
2(1 -1)
2(1 -1)
2(1 -1)
2(1 -1)
2(1 -1)
2(1 -1)
2(1 -1)
2(1 -1)
2(1 -1)
2(1 -1)
2(1 -1)
2(1 -1)
2(1 -1)
2(1 -1)
2(1 -1)
2(1 -1)
2(1 -1)
2(1 -1)
2(1 -1)
2(1 -1)
2(1 -1)
2(1 -1)
2(1 -1)
2(1 -1)
)

// edgeNormals

112
(
2(0 1)
2(2 3)
2(4 5)
2(6 7)
2(8 9)
2(10 11)
2(12 13)
2(14 15)
2(16 17)
2(18 19)
2(20 21)
2(22 23)
2(24 25)
2(26 27)
2(28 29)
2(30 31)
2(32 33)
2(34 35)
2(36 37)
2(38 39)
2(40 41)
2(42 43)
2(44 45)
2(46 47)
2(48 49)
2(50 51)
2(52 53)
2(54 55)
2(56 57)
2(58 59)
2(60 61)
2(62 63)
2(64 65)
2(66 67)
2(68 69)
2(70 71)
2(72 73)
2(74 75)
2(76 77)
2(78 79)
2(80 81)
2(82 83)
2(84 85)
2(86 87)
2(88 89)
2(90 91)
2(92 93)
2(94 95)
2(96 97)
2(98 99)
2(100 101)
2(102 103)
2(104 105)
2(106 107)
2(108 109)
2(110 111)
2(112 113)
2(114 115)
2(116 117)
2(118 119)
2(120 121)
2(122 123)
2(124 125)
2(126 127)
2(128 129)
2(130 131)
2(132 133)
2(134 135)
2(136 137)
2(138 139)
2(140 141)
2(142 143)
2(144 145)
2(146 147)
2(148 149)
2(150 151)
2(152 153)
2(154 155)
2(156 157)
2(158 159)
2(160 161)
2(162 163)
2(164 165)
2(166 167)
2(168 169)
2(170 171)
2(172 173)
2(174 175)
2(176 177)
2(178 179)
2(180 181)
2(182 183)
2(184 185)
2(186 187)
2(188 189)
2(190 191)
2(192 193)
2(194 195)
2(196 197)
2(198 199)
2(200 201)
2(202 203)
2(204 205)
2(206 207)
2(208 209)
2(210 211)
2(212 213)
2(214 215)
2(216 217)
2(218 219)
2(220 221)
2(222 223)
)

// featurePointNormals
0()
// featurePointEdges
0()
// regionEdges
0()


// ************************************************************************* //
